Version 4
SHEET 1 1940 680
WIRE 464 -48 0 -48
WIRE 1088 -48 464 -48
WIRE 240 32 208 32
WIRE 384 32 304 32
WIRE 384 48 384 32
WIRE 864 48 640 48
WIRE 1008 48 928 48
WIRE 1248 48 1008 48
WIRE 1008 64 1008 48
WIRE 464 128 464 -48
WIRE 80 144 -48 144
WIRE 208 144 208 32
WIRE 208 144 160 144
WIRE 240 144 208 144
WIRE 384 144 384 128
WIRE 384 144 304 144
WIRE 448 144 384 144
WIRE 1088 144 1088 -48
WIRE 608 160 512 160
WIRE 816 160 768 160
WIRE 864 160 816 160
WIRE 1008 160 1008 144
WIRE 1008 160 928 160
WIRE 1072 160 1008 160
WIRE 448 176 416 176
WIRE 1248 176 1248 48
WIRE 1248 176 1136 176
WIRE 1536 176 1248 176
WIRE 1840 176 1616 176
WIRE 208 192 208 144
WIRE 1072 192 1040 192
WIRE 608 208 608 160
WIRE 816 208 816 160
WIRE 1248 224 1248 176
WIRE 416 320 416 176
WIRE 608 320 608 288
WIRE 608 320 416 320
WIRE 688 320 688 160
WIRE 688 320 608 320
WIRE 1040 320 1040 192
WIRE 1248 320 1248 304
WIRE 1248 320 1040 320
WIRE 608 336 608 320
WIRE 1248 352 1248 320
WIRE 208 432 208 272
WIRE 608 432 608 416
WIRE 608 432 208 432
WIRE 640 432 640 48
WIRE 640 432 608 432
WIRE 816 432 816 288
WIRE 816 432 640 432
WIRE 1248 432 816 432
WIRE 1840 432 1840 176
WIRE 1840 432 1248 432
FLAG -80 -48 0
FLAG -48 224 0
FLAG 208 512 0
FLAG 464 192 0
FLAG 1088 208 0
SYMBOL res 176 128 R90
WINDOW 0 0 56 VBottom 2
WINDOW 3 32 56 VTop 2
SYMATTR InstName R1
SYMATTR Value 12.8k
SYMBOL res 224 288 R180
WINDOW 0 36 76 Left 2
WINDOW 3 36 40 Left 2
SYMATTR InstName R2
SYMATTR Value 1.11k
SYMBOL res 400 144 R180
WINDOW 0 36 76 Left 2
WINDOW 3 36 40 Left 2
SYMATTR InstName R3
SYMATTR Value 103k
SYMBOL res 624 304 R180
WINDOW 0 36 76 Left 2
WINDOW 3 36 40 Left 2
SYMATTR InstName R4
SYMATTR Value 68.1k
SYMBOL res 624 432 R180
WINDOW 0 36 76 Left 2
WINDOW 3 36 40 Left 2
SYMATTR InstName R5
SYMATTR Value 151
SYMBOL res 784 144 R90
WINDOW 0 0 56 VBottom 2
WINDOW 3 32 56 VTop 2
SYMATTR InstName R6
SYMATTR Value 12.8k
SYMBOL res 832 304 R180
WINDOW 0 36 76 Left 2
WINDOW 3 36 40 Left 2
SYMATTR InstName R7
SYMATTR Value 1.12k
SYMBOL res 1024 160 R180
WINDOW 0 36 76 Left 2
WINDOW 3 36 40 Left 2
SYMATTR InstName R8
SYMATTR Value 103k
SYMBOL res 1264 320 R180
WINDOW 0 36 76 Left 2
WINDOW 3 36 40 Left 2
SYMATTR InstName R9
SYMATTR Value 10k
SYMBOL res 1264 448 R180
WINDOW 0 36 76 Left 2
WINDOW 3 36 40 Left 2
SYMATTR InstName R10
SYMATTR Value 157
SYMBOL Opamps\\ADA4805 480 160 R0
SYMATTR InstName U1
SYMBOL Opamps\\ADA4805 1104 176 R0
SYMATTR InstName U2
SYMBOL cap 304 16 R90
WINDOW 0 0 32 VBottom 2
WINDOW 3 32 32 VTop 2
SYMATTR InstName C1
SYMATTR Value 150p
SYMBOL cap 304 128 R90
WINDOW 0 0 32 VBottom 2
WINDOW 3 32 32 VTop 2
SYMATTR InstName C2
SYMATTR Value 150p
SYMBOL cap 928 32 R90
WINDOW 0 0 32 VBottom 2
WINDOW 3 32 32 VTop 2
SYMATTR InstName C3
SYMATTR Value 160p
SYMBOL cap 928 144 R90
WINDOW 0 0 32 VBottom 2
WINDOW 3 32 32 VTop 2
SYMATTR InstName C4
SYMATTR Value 160p
SYMBOL voltage -48 128 R0
WINDOW 123 24 124 Left 2
WINDOW 39 0 0 Left 0
SYMATTR Value2 AC 1
SYMATTR InstName V1
SYMATTR Value PULSE(0 .6 0 0 0 5e-6 10e-6 1000)
SYMBOL voltage 208 416 R0
WINDOW 123 0 0 Left 0
WINDOW 39 0 0 Left 0
SYMATTR InstName V2
SYMATTR Value 1.2
SYMBOL voltage 16 -48 R90
WINDOW 0 -32 56 VBottom 2
WINDOW 3 32 56 VTop 2
WINDOW 123 0 0 Left 0
WINDOW 39 0 0 Left 0
SYMATTR InstName V3
SYMATTR Value 3.3
SYMBOL res 1632 160 R90
WINDOW 0 0 56 VBottom 2
WINDOW 3 32 56 VTop 2
SYMATTR InstName R11
SYMATTR Value 1000000
TEXT -104 536 Left 2 !.ac dec 50 1e3 1e6
